Program Version,EnergyPlus, Version 24.1.0-9d7789a3ac, YMD=2025.03.20 14:43,
   ** Warning ** Weather file location will be used rather than entered (IDF) Location object.
   **   ~~~   ** ..Location object=TEMIXCO
   **   ~~~   ** ..Weather File Location=Napo Tena ECU ikiam WMO#=-
   **   ~~~   ** ..due to location differences, Latitude difference=[19.81] degrees, Longitude difference=[21.31] degrees.
   **   ~~~   ** ..Time Zone difference=[1.0] hour(s), Elevation difference=[53.52] percent, [685.00] meters.
   ** Warning ** CheckUsedConstructions: There are 23 nominally unused constructions in input.
   **   ~~~   ** For explicit details on each unused construction, use Output:Diagnostics,DisplayExtraWarnings;
   ************* Testing Individual Branch Integrity
   ************* All Branches passed integrity testing
   ************* Testing Individual Supply Air Path Integrity
   ************* All Supply Air Paths passed integrity testing
   ************* Testing Individual Return Air Path Integrity
   ************* All Return Air Paths passed integrity testing
   ************* No node connection errors were found.
   ************* Beginning Simulation
   **  Fatal  ** End-of-File encountered after 1/697293824/697297072 -1820778104:0, starting from first day of Weather File would not be "next day"
   ...Summary of Errors that led to program termination:
   ..... Reference severe error count=0
   ..... Last severe error=
   *************
   ************* ===== Final Error Summary =====
   ************* The following error categories occurred.  Consider correcting or noting.
   ************* Nominally Unused Constructions
   ************* ..The nominally unused constructions warning is provided to alert you to potential conditions that can cause
   ************* ..extra time during simulation. Each construction is calculated by the algorithm indicated in the HeatBalanceAlgorithm
   ************* ..object. You may remove the constructions indicated (when you use the DisplayExtraWarnings option).
   *************
   ************* EnergyPlus Warmup Error Summary. During Warmup: 0 Warning; 0 Severe Errors.
   ************* EnergyPlus Sizing Error Summary. During Sizing: 0 Warning; 0 Severe Errors.
   ************* EnergyPlus Terminated--Fatal Error Detected. 2 Warning; 0 Severe Errors; Elapsed Time=00hr 00min  2.67sec
